examples/cases/case65/case65-23/case65.pwf
TITU
Sistema-Teste de 65 Barras - Caso Base                                          
DOPC IMPR
(Op) E (Op) E (Op) E (Op) E (Op) E (Op) E (Op) E (Op) E (Op) E (Op) E
QLIM L CREM L CTAP L STEP L NEWT L MOCT L MOCG L MOCF L RCVG L RMON L
FILE L
99999
DBAR
(Num)OETGb(   nome   )Gl( V)( A)( Pg)( Qg)( Qn)( Qm)(Bc  )( Pl)( Ql)( Sh)Are(Vf)M(1)(2)(3)(4)(5)(6)(7)(8)(9)(10
   18  1A ITUMBIAR-4GRA 10003.56 800.-332.-400. 400.                       11000
   20  1A MARIMBON-5GRA 1010-1.3 900.-253.-480. 480.                       11000
   48  1A IBIUNA---3CSA 1000-27.   0.-618.-10801200.                       11000
  100   B MARIMBON-500C 1048-7.5                                           11000
  101   B ARARAQUA-500C 1069-19.                                           11000
  102   B POCOS----500C 1068-29.                                           11000
  103   B CAMPINAS-500C 1063-29.                                           11000
  104   B C.PAULIS-500C 1053-38.                          1200. 150.       11000
  120   D P.CALDAS-345B 1061-30.                          105.  33.        11000
  122   B IBIUNA---500C 1059-27.                          200.  38.        11000
  123   D CAMPINAS-345B 1020-34.                          440. 160.        11000
  210   B ITUMBIARA500C 1036-.87                                           11000
  213   D MARIMBON-345B 1042-8.4                           75.  25.        11000
  217   D ITUMBIARA345B 1032 -3.                          454.  48.        11000
  233   B SAMAMBAI-500C 1009-8.6                                           11000
  234   D SAMAMBAI-345B  992-11.                          900. 300.        11000
  300  1A EMBORCAC-3GRA 10008.35 700.-217.-880. 680.                       11000
  301  1A JAGUARA--3GRA 10208.32 250.-85.3-140. 140.                       11000
  302  1A N.PONTE--3GRA 10108.32 350.-146.-360. 285.                       11000
  303  1A S.SIMAO--3GRA 10101.32 200.-247.-1200 840.                       11000
  320   B EMBORCAC-500C 10343.08                                           11000
  325   B JAGUARA--500C 10533.64                                           11000
  326   D JAGUARA--345B 10452.43                          214.  74.        11000
  360   B NPONTE---500C 10404.62                                           11000
  370   B SSIMAO---500C 1045-.21                                           11000
  500  1A A.VERMEL-4GRA 10202.15 800.-60.4-450. 450.                       11000
  535   B AVERMELHA500C 1029-2.3                                           11000
  536   C AVERMELH-440B 1003-7.9                          700. 150.        11000
  800  2A GBMUNHOZ-3GRA 1030  0.1049.5.281-800. 800.                       21000
  808  1A SCAXIAS--4GRA 103013.81150.46.14-600. 600.                       21000
  810  1A SSEGREDO-4GRA 10306.571200.-157.-400. 532.                       21000
  814   E BATEIAS--230A 1000-25.                          735.4 191.       21000
  824   B GBMUNHOZ-500C 1061-6.3                                           21000
  834   E S.MATEUS-230A  995-17.                          13.4  4.2        21000
  839   E CASCAVEL-230A  9994.23                                           21000
  840   F CASCAVEL-138A  9861.24                          159.  36.        21000
  848   F FCHOPIM--138A 10155.08                           94.  18.        21000
  856   B SEGREDO--500C 1053 -.1                                           21000
  895   B BATEIAS--500C 1065-23.                                           21000
  896   B CASCAVELO500C 10496.23                                           21000
  897   B SCAXIAS--500C 10567.46                                           21000
  898   E FCHOPIM--230A 10288.37                                           21000
  904  1A ITA------3GRA 1040-3.2 700.-229.-475. 475.                       21000
  915  1A MACHADIN-2GRA 1030-3.6 600.-205.-516. 465.                       21000
  919  1A SOSOR1A4-4GRA 103015.9 700.155.4-148. 220.                       21000
  925  1A SSANTIAG-3GRA 103010.3 950.13.17-440. 420.                       21000
  933   B AREIA----500C 1061-6.7                                           21000
  934   E AREIA----230A 1000-6.8                          237.  59.        21000
  938   B BLUMENAU-500C 1071-25.                                           21000
  939   E BLUMENAU-230A 1000-27.                          1149.53.06       21000
  955   B CNOVOS---500C 1086-13.                                           21000
  959   B CURITIBA-500C 1057-23.                                    100.   21000
  960   E CURITIBA-230A 1000-25.                          844.7469.1       21000
  964   B CAXIAS---500C 1073-20.                                           21000
  965   E CAXIAS---230A 1000-22.                          755.656.24       21000
  976   B GRAVATAI-500C 1050-22.                                           21000
  995   B ITA------500C 1078-8.7                                           21000
 1015   E JOINVILLE230A 1003-27.                           70.   2.        21000
 1030   B MACHADIN-500C 1078-10.                                           21000
 1047   E SOSORIO--230A 10359.31                                           21000
 1060   B SSANTIAG-500C 10612.53                                           21000
 1210   E GRAVATAI-230A 1000-25.                          1228. 425.       21000
 1503   B ITAJUBA--500C 1059-36.                                           11000
 1504   F ITAJUBA--138B 1056-39.                          110.  43.        11000
 2458   E CASCAVEL-230A 10004.01                          403. 126.        21000
99999
DLIN
(De )d O d(Pa )NcEP ( R% )( X% )(Mvar)(Tap)(Tmn)(Tmx)(Phs)(Bc  )(Cn)(Ce)Ns(Cq)(1)(2)(3)(4)(5)(6)(7)(8)(9)(10
  100        20 1          1.264         1.                     15201520  
  100       101 1     .172  2.72 231.4                          16652460  
  100       101 2     .171   2.7 230.2                          16652460  
  100       210 1     .209 2.935 254.6                          17321732  
  100       213 1          2.357         1.                      560 560  
  100       535 1     .153   2.4 203.8                          16651665  
  101       102 1     .156  2.46 208.5                          16651665  
  101       103 1     .152  2.39 202.6                          16651665  
  102       120 1          2.403         1.                      560 560  
  102      1503 1      .11  1.91161.85                          16651665  
  103       123 1          2.419         1.                      560 560  
  104       103 1     .196   3.1 264.9                          16651665  
  104      1503 1      .05   .82 69.36                          16651665  
  122        48 1           .953         1.                     10501050  
  122       103 1     .105 1.619136.35                          16651665  
  122       103 2     .105 1.619136.35                          16651665  
  210        18 1             1.         1.                     24002400  
  210       217 1           1.72         1.                      560 560  
  210       217 2           1.72         1.                      560 560  
  210       370 1     .147  2.32 196.6                          16651665  
  233       210 1      .28  3.99355.36                          25982598  
  233       320 1      .27  3.87344.03                          25982598  
  234       233 1          1.113         1.                     10501050  
  234       233 2             1.         1.                     10501050  
  320       210 1     .125 1.937149.96                          19481948  
  320       300 1         1.3567         1.                     12001200  
  320       360 1     .082 1.256 98.99                          20782078  
  325       301 1           3.51         1.                      500 500  
  325       326 1           2.16         1.                      400 483  
  325       326 2           2.16         1.                      400 483  
  325       360 1       .1 1.519119.67                          22512251  
  325       370 1      .28  4.84 419.5                          22052205  
  360       302 1         1.9367         1.                      537 537  
  370       303 1           1.41         1.                     17401740  
  370       535 1    .09311.3758 112.3                          22052205  
  535       500 1          1.025         1.                     15001500  
  536       535 1           1.42         1.                      750 900  
  814       895 1     .032 1.146      .9503   .9  1.1       814  600 60019
  814       895 2      .031.1651      .9503   .9  1.1       814  600 60019
  824       800 1           1.12      1.024                     16761676  
  824       933 1      .01  .12415.204                          21822182  
  824       933 2      .01  .12615.428                          21822182  
  834       934 1    2.44412.65221.706                           359 359  
  839       840 1           6.64         1. .8811.136       839  150 15016
  839       840 2           6.29         1. .8811.136       839  150 15016
  839       898 1     1.13  6.9912.617                           189 318  
  839      1047 1     1.22  7.69 13.81                           189 323  
  839      2458 1      .22  1.091.8601                           319 413  
  839      2458 2      .17  1.032.0537                           356 356  
  856       810 1           1.05         1.                     12601260  
  856       933 1     .052  .65480.493                          22732273  
  856      1060 1     .056  .69785.746                          21822182  
  895       122 1     .308 3.958444.84                          12992252  
  895       122 2     .308 3.958444.84                          12992252  
  896       897 1      .05   .73 78.06                          16371637  
  897       808 1           1.02      1.024                     13441478  
  898       848 1           6.36         1. .8811.136       898  150 15016
  898      1047 1      .15   .891.6317                           324 324  
  933       895 1       .2  2.55312.72                          21102110  
  933       955 1     .162 2.048250.17                          21102110  
  933       959 1       .2  2.69 336.4                          21822182  
  934       933 1 T   .031 1.207      .9477   .9  1.1       934  672 80619
  934      1047 1    3.04515.73827.123                           319 319  
  934      1047 2    3.04115.71827.089                           319 319  
  938       955 1    .25562.9224 360.4                          20372037  
  938       959 1     .127 1.603195.89                          12661266  
  939       938 1 T   .031  1.15       .936   .9  1.1       939  672 80619
  939       938 2 T   .032 1.163       .936   .9  1.1       939  672 80619
  939       938 3          1.277       .936   .9  1.1       939  672 67219
  939      1015 1 T  1.271 6.56211.305                           306 319  
  939      1015 2 T  1.283 6.56411.522                           306 319  
  955       964 1    .18772.3467287.24                          16881688  
  959       895 1      .05   .44 47.58                          21102110  
  960       834 1     2.2111.47519.687                           319 319  
  960       959 1 T   .032 1.163      .9744   .9  1.1       960  672 80619
  960       959 2 T   .031 1.166      .9744   .9  1.1       960  672 80619
  960      1015 1    1.892 9.77616.845                           319 319  
  960      1015 2    1.895 9.70417.029                           319 319  
  964       976 1    .0733 .9164112.17                          16881688  
  965       964 1 T    .02 1.211      .9349   .9  1.1       965  672 80619
  965       964 2 T    .02 1.233      .9349   .9  1.1       965  672 80619
  976       995 1     .282 3.852 493.7                          16881688  
  995       904 1 T .012331.5383         1.                     16251625  
  995       964 1    .16433.0339354.88                          21822182  
  995      1030 1     .073   .92112.26                          21822182  
  995      1060 1     .172  2.17265.16                          21102110  
 1030       915 1 T       2.0655         1.                     12541254  
 1030       955 1     .047   .5971.818                          21822182  
 1047       919 1 T .024251.7022      1.025                      788 788  
 1060       897 1     .076 1.171124.58                          23702681  
 1060       925 1 T .01133 1.515      1.024                     14021402  
 1210       976 1 T    .03 1.219      .9681   .9  1.1      1210  672 80619
 1210       976 2 T   .039 1.138      .9681   .9  1.1      1210  672 80619
 1210       976 3 T   .036 1.217      .9681   .9  1.1      1210  672 80619
 1503      1504 1            5.2      .9824  .95  1.1      1503  300 30013
 2458       896 1           1.27      .9654   .9  1.1      2458  600 60019
99999
DGLT
(G (Vmn) (Vmx) (Vmne (Vmxe
 A   .95  1.05
 C   .95   1.1
 B   .95  1.07
99999
DARE
(Ar    (Xchg)     (      Identificacao da area       ) (Xmin) (Xmax)
  1        0.     AREA UM                                           
  2        0.     AREA DOIS                                         
99999
DGBT
(G ( kV)
 A  13.8
 B  500.
 D  345.
 C  440.
 E  230.
 F  138.
99999
DGGB
(G Co Es
 A  0  1
 B  0  1
 D  0  1
 C  0  1
 E  0  1
 F  0  1
99999
ULOG
4
case65-pf.txt
EXLF
RELA RBAR
DMET
(tp) (no ) C (tp) (no ) C (tp) (no ) C (tp) (no ) O F
AREA     1 A AREA     2   
99999
(
DINC
(tp) (no ) C (tp) (no ) C (tp) (no ) C (tp) (no ) O ( P ) ( Q ) (Pmx) (Qmx)
AREA     1 A AREA     2                              0.01  0.01
99999
ULOG
4
case65-cpf.txt
EXIC
ULOG
4
case65-cpfctg.txt
EXCA
AREA     1 A AREA     2                                                                                                             
99999
FIM